Version 4
SHEET 1 1432 1664
WIRE 784 -176 704 -176
WIRE 1200 -176 864 -176
WIRE -496 -160 -496 -176
WIRE -384 -160 -384 -176
WIRE -80 -112 -128 -112
WIRE 16 -112 -16 -112
WIRE 224 -112 16 -112
WIRE -496 -64 -496 -80
WIRE -384 -64 -384 -80
WIRE 96 -16 96 -64
WIRE 16 0 16 -112
WIRE 64 0 16 0
WIRE 1056 0 1056 -64
WIRE 224 16 224 -112
WIRE 224 16 128 16
WIRE 352 16 224 16
WIRE 480 16 416 16
WIRE 560 16 480 16
WIRE 704 16 704 -176
WIRE 704 16 624 16
WIRE 800 16 704 16
WIRE 912 16 864 16
WIRE 1024 16 912 16
WIRE -448 32 -496 32
WIRE -288 32 -368 32
WIRE -256 32 -288 32
WIRE -128 32 -128 -112
WIRE -128 32 -176 32
WIRE -80 32 -128 32
WIRE 16 32 0 32
WIRE 64 32 16 32
WIRE 1200 32 1200 -176
WIRE 1200 32 1088 32
WIRE 1264 32 1200 32
WIRE 1024 48 992 48
WIRE 480 64 480 16
WIRE 912 64 912 16
WIRE -288 80 -288 32
WIRE 16 80 16 32
WIRE -496 96 -496 32
WIRE 96 128 96 48
WIRE 1056 144 1056 64
WIRE -288 176 -288 144
WIRE 16 176 16 144
WIRE 480 176 480 144
WIRE 912 176 912 144
WIRE 992 208 992 48
WIRE 1200 208 1200 32
WIRE 1200 208 992 208
WIRE -496 240 -496 176
FLAG -496 -64 0
FLAG -496 -176 +V
FLAG 96 -64 +V
FLAG -384 -64 0
FLAG -384 -176 -V
FLAG 96 128 -V
FLAG -496 240 0
FLAG 1264 32 OUT
FLAG 16 176 0
FLAG -288 176 0
FLAG 480 176 0
FLAG 912 176 0
FLAG 1056 144 +V
FLAG 1056 -64 -V
SYMBOL voltage -496 -176 R0
SYMATTR InstName V1
SYMATTR Value 5
SYMBOL voltage -496 192 M180
WINDOW 0 24 104 Left 2
WINDOW 3 24 16 Left 2
WINDOW 123 24 -12 Left 2
WINDOW 39 0 0 Left 0
SYMATTR InstName V3
SYMATTR Value SINE(0 1)
SYMATTR Value2 AC 1
SYMBOL voltage -384 -176 R0
SYMATTR InstName V2
SYMATTR Value -5
SYMBOL res -352 16 R90
WINDOW 0 0 56 VBottom 2
WINDOW 3 32 56 VTop 2
SYMATTR InstName R1
SYMATTR Value 9.1k
SYMBOL res -160 16 R90
WINDOW 0 0 56 VBottom 2
WINDOW 3 32 56 VTop 2
SYMATTR InstName R2
SYMATTR Value 91k
SYMBOL cap -272 144 R180
WINDOW 0 24 56 Left 2
WINDOW 3 24 8 Left 2
SYMATTR InstName C1
SYMATTR Value 330p
SYMBOL cap -16 -128 R90
WINDOW 0 0 32 VBottom 2
WINDOW 3 32 32 VTop 2
SYMATTR InstName C2
SYMATTR Value 150p
SYMBOL OpAmps\\opamp2 96 -48 R0
SYMATTR InstName U1
SYMATTR Value NE5532
SYMBOL res 16 16 R90
WINDOW 0 0 56 VBottom 2
WINDOW 3 32 56 VTop 2
SYMATTR InstName R3
SYMATTR Value 30k
SYMBOL cap 0 80 R0
SYMATTR InstName C3
SYMATTR Value 22p
SYMBOL cap 416 0 R90
WINDOW 0 0 32 VBottom 2
WINDOW 3 32 32 VTop 2
SYMATTR InstName C4
SYMATTR Value 680p
SYMBOL cap 624 0 R90
WINDOW 0 0 32 VBottom 2
WINDOW 3 32 32 VTop 2
SYMATTR InstName C5
SYMATTR Value 68p
SYMBOL cap 864 0 R90
WINDOW 0 0 32 VBottom 2
WINDOW 3 32 32 VTop 2
SYMATTR InstName C6
SYMATTR Value 68p
SYMBOL res 464 48 R0
SYMATTR InstName R4
SYMATTR Value 4.3k
SYMBOL res 896 48 R0
SYMATTR InstName R5
SYMATTR Value 100k
SYMBOL res 880 -192 R90
WINDOW 0 0 56 VBottom 2
WINDOW 3 32 56 VTop 2
SYMATTR InstName R6
SYMATTR Value 22k
SYMBOL OpAmps\\opamp2 1056 96 M180
SYMATTR InstName U2
SYMATTR Value NE5532
TEXT -504 312 Left 2 !.ac dec 1000 100 10000000
TEXT -504 360 Left 2 !***** NE5532 Source: Texas Instruments NE5534\n* C2 added to simulate compensated frequency response (Uwe Beis)\n \n* NE5532 OPERATIONAL AMPLIFIER "MACROMODEL" SUBCIRCUIT\n* CREATED USING NE5534 model from Texas InstrumentsAT 12:41\n* (REV N/A)      SUPPLY VOLTAGE: +/-15V\n* CONNECTIONS:   NON-INVERTING INPUT\n*                | INVERTING INPUT\n*                | | POSITIVE POWER SUPPLY\n*                | | | NEGATIVE POWER SUPPLY\n*                | | | | OUTPUT\n*                | | | | |\n.SUBCKT NE5532   1 2 3 4 5\n*\nC1   11 12 7.703E-12\nC2    6  7 23.500E-12\nDC    5 53 DX\nDE   54  5 DX\nDLP  90 91 DX\nDLN  92 90 DX\nDP    4  3 DX\nEGND 99  0 POLY(2) (3,0) (4,0) 0 .5 .5\nFB    7 99 POLY(5) VB VC VE VLP VLN 0 2.893E6 -3E6 3E6 3E6 -3E6\nGA    6  0 11 12 1.382E-3\nGCM   0  6 10 99 13.82E-9\nIEE  10  4 DC 133.0E-6\nHLIM 90  0 VLIM 1K\nQ1   11  2 13 QX\nQ2   12  1 14 QX\nR2    6  9 100.0E3\nRC1   3 11 723.3\nRC2   3 12 723.3\nRE1  13 10 329\nRE2  14 10 329\nREE  10 99 1.504E6\nRO1   8  5 50\nRO2   7 99 25\nRP    3  4 7.757E3\nVB    9  0 DC 0\nVC    3 53 DC 2.700\nVE   54  4 DC 2.700\nVLIM  7  8 DC 0\nVLP  91  0 DC 38\nVLN   0 92 DC 38\n.MODEL DX D(IS=800.0E-18)\n.MODEL QX NPN(IS=800.0E-18 BF=132)\n.ENDS
